Circuit: * C:\Users\gabri\OneDrive\Área de Trabalho\Barco\Módulos Barco\Modulo-Direcao-Eletrica\Simuations\LTspice XVII\vref+diff+sallenkey.asc

Direct Newton iteration failed to find .op point.  (Use ".option noopiter" to skip.)
Starting Gmin stepping
Gmin = 10
Gmin = 1.07374
Gmin = 0.115292
Gmin = 0.0123794
Gmin = 0.00132923
Gmin = 0.000142725
vernier = 0.5
Gmin = 2.66058e-005
vernier = 0.25
vernier = 0.125
vernier = 0.0625
vernier = 0.03125
Gmin = 2.83565e-005
vernier = 0.015625
vernier = 0.0078125
vernier = 0.00390625
vernier = 0.00195313
Gmin = 2.84252e-005
vernier = 0.000976563
vernier = 0.000488281
Gmin = 0
Gmin stepping failed

Starting source stepping with srcstepmethod=0
Source Step = 3.0303%
Source Step = 14.2045%
Source Step = 16.0985%
Source Step = 17.9924%
Source Step = 19.8864%
Source Step = 21.7803%
vernier = 0.09375
Source Step = 23.8636%
Source Step = 26.7045%
Source Step = 29.5455%
Source Step = 32.3864%
Source Step = 33.8157%
Source Step = 33.8601%
Source Step = 33.9045%
Source Step = 33.9489%
Source Step = 33.9933%
Source Step = 34.0376%
vernier = 0.00219727
Source Step = 34.102%
Source Step = 34.1686%
Source Step = 34.2352%
Source Step = 34.3018%
Source Step = 34.3683%
vernier = 0.0032959
Source Step = 34.4616%
Source Step = 34.5614%
Source Step = 34.6613%
Source Step = 34.7612%
Source Step = 34.8611%
vernier = 0.00494385
Source Step = 34.9959%
Source Step = 35.1457%
Source Step = 35.2955%
Source Step = 35.4453%
Source Step = 35.5951%
vernier = 0.00741577
Source Step = 35.7899%
Source Step = 36.0146%
Source Step = 36.2393%
Source Step = 36.4641%
Source Step = 36.6888%
vernier = 0.0111237
Source Step = 36.9697%
Source Step = 37.3068%
Source Step = 37.6438%
Source Step = 37.9809%
Source Step = 38.318%
vernier = 0.0166855
Source Step = 38.7225%
Source Step = 39.2281%
Source Step = 39.7337%
Source Step = 40.2394%
Source Step = 40.745%
vernier = 0.0250282
Source Step = 41.3265%
Source Step = 42.0849%
Source Step = 42.8433%
Source Step = 43.6017%
Source Step = 44.3602%
vernier = 0.0375423
Source Step = 45.1945%
Source Step = 46.3321%
Source Step = 47.4697%
Source Step = 48.6074%
Source Step = 49.745%
vernier = 0.0563135
Source Step = 50.9396%
Source Step = 52.646%
Source Step = 54.3525%
Source Step = 56.059%
Source Step = 57.7654%
Source Step = 59.4719%
vernier = 0.0844703
Source Step = 62.0316%
Source Step = 64.5913%
Source Step = 67.151%
Source Step = 69.7107%
Source Step = 72.2704%
vernier = 0.126705
Source Step = 75.982%
Source Step = 79.8216%
Source Step = 83.6611%
Source Step = 87.5007%
Source Step = 90.6683%
vernier = 0.00791909
Source Step = 90.6263%
Source Step = 90.6863%
Source Step = 90.7463%
Source Step = 90.8063%
Source stepping aborted.
Starting source stepping with srcstepmethod=1
Source Step = 3.0303%
Source Step = 33.3333%
Source Step = 63.6364%
Source Step = 93.9394%
Source Step = 96.9815%
Source Step = 97.0111%
Source Step = 97.0407%
Source Step = 97.0703%
Source Step = 97.0999%
Source Step = 97.1295%
Source Step = 97.1591%
Source Step = 97.1887%
Source Step = 97.2183%
vernier = 0.00146484
Source Step = 97.2567%
Source Step = 97.3011%
Source Step = 97.3455%
Source Step = 97.3899%
Source Step = 97.4343%
vernier = 0.00219727
Source Step = 97.4898%
Source Step = 97.5564%
Source Step = 97.623%
Source Step = 97.6895%
Source Step = 97.7561%
vernier = 0.0032959
Source Step = 97.836%
Source Step = 97.9359%
Source Step = 98.0358%
Source Step = 98.1357%
Source Step = 98.2355%
vernier = 0.00494385
Source Step = 98.3504%
Source Step = 98.5002%
Source Step = 98.65%
Source Step = 98.7998%
Source Step = 98.9496%
vernier = 0.00741577
Source Step = 99.1144%
Source Step = 99.3392%
Source Step = 99.5639%
Source Step = 99.7886%
Source Step = 100%
Source stepping succeeded in finding the operating point.


Date: Tue Jun 21 13:21:11 2022
Total elapsed time: 2.432 seconds.

tnom = 27
temp = 27
method = modified trap
totiter = 23925
traniter = 5369
tranpoints = 2570
accept = 2549
rejected = 21
matrix size = 189
fillins = 223
solver = Normal
Thread vector: 26.5/17.4[6] 12.8/5.1[6] 3.5/5.8[1] 1.0/2.2[1]  2592/500
Matrix Compiler1: 24.46 KB object code size  7.3/3.7/[2.2]
Matrix Compiler2: 21.51 KB object code size  3.5/5.2/[1.6]

