Circuit: * C:\users\alejopm\Favorites\alejopm\zenite\MSC22\simulations\INA826_2.asc

WARNING: Node VP- is floating.

WARNING: Less than two connections to node VP+.  This node is used by V§PANEL.
WARNING: Less than two connections to node VP-.  This node is used by V§PANEL.
u3:input1:vi3b: Missing value, assumed 0V @ DC
u3:input1:vi8b: Missing value, assumed 0V @ DC
u3:output:vi3b: Missing value, assumed 0V @ DC
u3:output:vi8b: Missing value, assumed 0V @ DC
u3:u1:vi3b: Missing value, assumed 0V @ DC
u3:u1:vi8b: Missing value, assumed 0V @ DC
u3:bias:vib1: Missing value, assumed 0V @ DC
Direct Newton iteration failed to find .op point.  (Use ".option noopiter" to skip.)
Starting Gmin stepping
Gmin = 10
Gmin = 1.07374
Gmin = 0.115292
Gmin = 0.0123794
Gmin = 0.00132923
Gmin = 0.000142725
Gmin = 1.5325e-005
Gmin = 1.6455e-006
Gmin = 1.76685e-007
Gmin = 1.89714e-008
Gmin = 2.03704e-009
Gmin = 2.18725e-010
Gmin = 2.34854e-011
Gmin = 2.52173e-012
Gmin = 2.70769e-013
Gmin = 0
Gmin stepping succeeded in finding the operating point.


Date: Tue Jun 21 15:57:00 2022
Total elapsed time: 3.122 seconds.

tnom = 27
temp = 27
method = trap
totiter = 28019
traniter = 27549
tranpoints = 13246
accept = 8035
rejected = 5211
matrix size = 262
fillins = 243
solver = Normal
Thread vector: 80.6/55.8[5] 19.9/11.8[5] 23.6/9.5[5] 4.8/5.8[1]  2592/500
Matrix Compiler1: 28.29 KB object code size  14.8/9.4/[5.2]
Matrix Compiler2: 26.76 KB object code size  8.7/10.7/[7.6]

